#############################################################
#             ______       _    _          _                #
#            (_____ \     \ \  / /        | |               #
#             _____) )   _ \ \/ / |_  ____| |               #
#            |  ____/ | | | )  (|  _)/ _  | |               #
#            | |    | |_| |/ /\ \ |_( (_| | |___            #
#            |_|     \__  /_/  \_\___)__|_|_____)           #
#                   (____/                                  #
#---------------------(version    1.1.0)--------------------#
#       A Python package for random crystal generation      #
#       url: https://github.com/qzhu2017/pyxtal             #
#       @Zhu's group at University of Nevada Las Vegas      #
#############################################################
data_1-d0.770-spg77-e24.076

_symmetry_space_group_name_H-M 'P42'
_symmetry_Int_Tables_number                   77
_symmetry_cell_setting                tetragonal
_cell_length_a           22.272039
_cell_length_b           22.272039
_cell_length_c            7.349282
_cell_angle_alpha        90.000000
_cell_angle_beta         90.000000
_cell_angle_gamma        90.000000
_cell_volume           3645.565192

loop_
 _symmetry_equiv_pos_site_id
 _symmetry_equiv_pos_as_xyz
1 'x, y, z'
2 '-x, -y, z'
3 '-y, x, z+1/2'
4 'y, -x, z+1/2'

loop_
 _atom_site_label
 _atom_site_type_symbol
 _atom_site_symmetry_multiplicity
 _atom_site_fract_x
 _atom_site_fract_y
 _atom_site_fract_z
 _atom_site_occupancy
O      O        4     0.961000    0.637000    0.187000 1
C      C        4     0.909000    0.654000    0.187000 1
N      N        4     0.874000    0.666000    0.039000 1
C      C        4     0.817000    0.686000    0.093000 1
C      C        4     0.768000    0.706000   -0.009000 1
C      C        4     0.718000    0.727000    0.090000 1
C      C        4     0.718000    0.727000    0.284000 1
C      C        4     0.768000    0.706000    0.383000 1
C      C        4     0.817000    0.687000    0.282000 1
N      N        4     0.874000    0.666000    0.336000 1
C      C        4     0.660000    0.751000    0.369000 1
C      C        4     0.610000    0.712000    0.284000 1
C      C        4     0.569000    0.677000    0.383000 1
C      C        4     0.529000    0.643000    0.281000 1
N      N        4     0.487000    0.599000    0.335000 1
C      C        4     0.463000    0.570000    0.187000 1
O      O        4     0.431000    0.526000    0.187000 1
N      N        4     0.487000    0.599000    0.039000 1
C      C        4     0.529000    0.643000    0.093000 1
C      C        4     0.569000    0.677000   -0.009000 1
C      C        4     0.610000    0.712000    0.090000 1
C      C        4     0.660000    0.751000    0.006000 1
C      C        4     0.652000    0.813000    0.091000 1
C      C        4     0.647000    0.867000   -0.009000 1
C      C        4     0.642000    0.920000    0.093000 1
N      N        4     0.640000    0.981000    0.039000 1
C      C        4     0.640000    1.018000    0.187000 1
O      O        4     0.641000    1.073000    0.187000 1
N      N        4     0.640000    0.981000    0.336000 1
C      C        4     0.642000    0.920000    0.282000 1
C      C        4     0.647000    0.867000    0.383000 1
C      C        4     0.652000    0.813000    0.284000 1
H      H        4     0.887000    0.659000   -0.092000 1
H      H        4     0.769000    0.706000   -0.156000 1
H      H        4     0.769000    0.706000    0.531000 1
H      H        4     0.887000    0.659000    0.466000 1
H      H        4     0.660000    0.751000    0.518000 1
H      H        4     0.569000    0.676000    0.530000 1
H      H        4     0.481000    0.585000    0.466000 1
H      H        4     0.481000    0.585000   -0.092000 1
H      H        4     0.569000    0.676000   -0.156000 1
H      H        4     0.660000    0.751000   -0.143000 1
H      H        4     0.648000    0.868000   -0.156000 1
H      H        4     0.639000    0.995000   -0.092000 1
H      H        4     0.639000    0.995000    0.466000 1
H      H        4     0.648000    0.868000    0.531000 1
#END
