# generated using pymatgen
data_H2O
_symmetry_space_group_name_H-M   'P 1'
_cell_length_a   4.45238200
_cell_length_b   7.70757000
_cell_length_c   7.27885800
_cell_angle_alpha   90.00000000
_cell_angle_beta   90.00000000
_cell_angle_gamma   90.00000000
_symmetry_Int_Tables_number   1
_chemical_formula_structural   H2O
_chemical_formula_sum   'H16 O8'
_cell_volume   249.78890432
_cell_formula_units_Z   8
loop_
 _symmetry_equiv_pos_site_id
 _symmetry_equiv_pos_as_xyz
  1  'x, y, z'
loop_
 _atom_site_type_symbol
 _atom_site_label
 _atom_site_symmetry_multiplicity
 _atom_site_fract_x
 _atom_site_fract_y
 _atom_site_fract_z
 _atom_site_occupancy
  H  H0  1  0.50000000  0.16268400  0.30287500  1
  H  H1  1  0.50000000  0.83731600  0.80287500  1
  H  H2  1  0.50000000  0.04022400  0.48041700  1
  H  H3  1  0.50000000  0.95977600  0.98041700  1
  H  H4  1  0.67871250  0.76954250  0.51677400  1
  H  H5  1  0.32128750  0.76954250  0.51677400  1
  H  H6  1  0.32128750  0.23045750  0.01677400  1
  H  H7  1  0.67871250  0.23045750  0.01677400  1
  H  H8  1  0.00000000  0.66268400  0.30287500  1
  H  H9  1  0.00000000  0.33731600  0.80287500  1
  H  H10  1  0.00000000  0.54022400  0.48041700  1
  H  H11  1  0.00000000  0.45977600  0.98041700  1
  H  H12  1  0.17871250  0.26954250  0.51677400  1
  H  H13  1  0.82128750  0.26954250  0.51677400  1
  H  H14  1  0.82128750  0.73045750  0.01677400  1
  H  H15  1  0.17871250  0.73045750  0.01677400  1
  O  O16  1  0.50000000  0.16460900  0.43975100  1
  O  O17  1  0.50000000  0.83539100  0.93975100  1
  O  O18  1  0.50000000  0.83344400  0.56540900  1
  O  O19  1  0.50000000  0.16655600  0.06540900  1
  O  O20  1  0.00000000  0.66460900  0.43975100  1
  O  O21  1  0.00000000  0.33539100  0.93975100  1
  O  O22  1  0.00000000  0.33344400  0.56540900  1
  O  O23  1  0.00000000  0.66655600  0.06540900  1
