#############################################################
#             ______       _    _          _                #
#            (_____ \     \ \  / /        | |               #
#             _____) )   _ \ \/ / |_  ____| |               #
#            |  ____/ | | | )  (|  _)/ _  | |               #
#            | |    | |_| |/ /\ \ |_( (_| | |___            #
#            |_|     \__  /_/  \_\___)__|_|_____)           #
#                   (____/                                  #
#---------------------(version    1.1.1)--------------------#
#       A Python package for random crystal generation      #
#       url: https://github.com/qzhu2017/pyxtal             #
#       @Zhu's group at U. North Carolina at Charlotte      #
#############################################################
data_from_pyxtal

_symmetry_space_group_name_H-M 'Im-3'
_symmetry_Int_Tables_number                  204
_symmetry_cell_setting                     cubic
_cell_length_a            9.442214
_cell_length_b            9.442214
_cell_length_c            9.442214
_cell_angle_alpha        90.000000
_cell_angle_beta         90.000000
_cell_angle_gamma        90.000000
_cell_volume            841.824379

loop_
 _symmetry_equiv_pos_site_id
 _symmetry_equiv_pos_as_xyz
1 'x, y, z'
2 '-x, -y, z'
3 '-x, y, -z'
4 'x, -y, -z'
5 'z, x, y'
6 'z, -x, -y'
7 '-z, -x, y'
8 '-z, x, -y'
9 'y, z, x'
10 '-y, z, -x'
11 'y, -z, -x'
12 '-y, -z, x'
13 '-x, -y, -z'
14 'x, y, -z'
15 'x, -y, z'
16 '-x, y, z'
17 '-z, -x, -y'
18 '-z, x, y'
19 'z, x, -y'
20 'z, -x, y'
21 '-y, -z, -x'
22 'y, -z, x'
23 '-y, z, x'
24 'y, z, -x'
25 'x+1/2, y+1/2, z+1/2'
26 '-x+1/2, -y+1/2, z+1/2'
27 '-x+1/2, y+1/2, -z+1/2'
28 'x+1/2, -y+1/2, -z+1/2'
29 'z+1/2, x+1/2, y+1/2'
30 'z+1/2, -x+1/2, -y+1/2'
31 '-z+1/2, -x+1/2, y+1/2'
32 '-z+1/2, x+1/2, -y+1/2'
33 'y+1/2, z+1/2, x+1/2'
34 '-y+1/2, z+1/2, -x+1/2'
35 'y+1/2, -z+1/2, -x+1/2'
36 '-y+1/2, -z+1/2, x+1/2'
37 '-x+1/2, -y+1/2, -z+1/2'
38 'x+1/2, y+1/2, -z+1/2'
39 'x+1/2, -y+1/2, z+1/2'
40 '-x+1/2, y+1/2, z+1/2'
41 '-z+1/2, -x+1/2, -y+1/2'
42 '-z+1/2, x+1/2, y+1/2'
43 'z+1/2, x+1/2, -y+1/2'
44 'z+1/2, -x+1/2, y+1/2'
45 '-y+1/2, -z+1/2, -x+1/2'
46 'y+1/2, -z+1/2, x+1/2'
47 '-y+1/2, z+1/2, x+1/2'
48 'y+1/2, z+1/2, -x+1/2'

loop_
 _atom_site_label
 _atom_site_type_symbol
 _atom_site_symmetry_multiplicity
 _atom_site_fract_x
 _atom_site_fract_y
 _atom_site_fract_z
 _atom_site_occupancy
Sm     Sm       2     0.000000    0.000000    0.000000 1
Sb     Sb      24     0.000000    0.337974    0.155972 1
Os     Os       8     0.250000    0.250000    0.250000 1
#END

