#############################################################
#             ______       _    _          _                #
#            (_____ \     \ \  / /        | |               #
#             _____) )   _ \ \/ / |_  ____| |               #
#            |  ____/ | | | )  (|  _)/ _  | |               #
#            | |    | |_| |/ /\ \ |_( (_| | |___            #
#            |_|     \__  /_/  \_\___)__|_|_____)           #
#                   (____/                                  #
#---------------------(version    1.1.1)--------------------#
#       A Python package for random crystal generation      #
#       url: https://github.com/qzhu2017/pyxtal             #
#       @Zhu's group at U. North Carolina at Charlotte      #
#############################################################
data_from_pyxtal

_symmetry_space_group_name_H-M 'C2/c'
_symmetry_Int_Tables_number                   15
_symmetry_cell_setting                monoclinic
_cell_length_a            8.057950
_cell_length_b            8.090396
_cell_length_c            5.830125
_cell_angle_alpha        90.000000
_cell_angle_beta        131.704957
_cell_angle_gamma        90.000000
_cell_volume            283.758536

loop_
 _symmetry_equiv_pos_site_id
 _symmetry_equiv_pos_as_xyz
1 'x, y, z'
2 '-x, y, -z+1/2'
3 '-x, -y, -z'
4 'x, -y, z+1/2'
5 'x+1/2, y+1/2, z'
6 '-x+1/2, y+1/2, -z+1/2'
7 '-x+1/2, -y+1/2, -z'
8 'x+1/2, -y+1/2, z+1/2'

loop_
 _atom_site_label
 _atom_site_type_symbol
 _atom_site_symmetry_multiplicity
 _atom_site_fract_x
 _atom_site_fract_y
 _atom_site_fract_z
 _atom_site_occupancy
Li     Li       4     0.000000    0.000000    0.000000 1
Li     Li       4     0.250000    0.250000    0.000000 1
Mn     Mn       4     0.000000    0.500000    0.000000 1
Cu     Cu       4     0.250000    0.250000    0.500000 1
O      O        8     0.718397    0.001980    0.954780 1
O      O        8     0.016298    0.734366    0.021492 1
#END

