#############################################################
#             ______       _    _          _                #
#            (_____ \     \ \  / /        | |               #
#             _____) )   _ \ \/ / |_  ____| |               #
#            |  ____/ | | | )  (|  _)/ _  | |               #
#            | |    | |_| |/ /\ \ |_( (_| | |___            #
#            |_|     \__  /_/  \_\___)__|_|_____)           #
#                   (____/                                  #
#---------------------(version    1.1.1)--------------------#
#       A Python package for random crystal generation      #
#       url: https://github.com/qzhu2017/pyxtal             #
#       @Zhu's group at U. North Carolina at Charlotte      #
#############################################################
data_from_pyxtal

_symmetry_space_group_name_H-M 'Imm2'
_symmetry_Int_Tables_number                   44
_symmetry_cell_setting              orthorhombic
_cell_length_a            3.842552
_cell_length_b            3.897385
_cell_length_c           60.700549
_cell_angle_alpha        90.000000
_cell_angle_beta         90.000000
_cell_angle_gamma        90.000000
_cell_volume            909.045569

loop_
 _symmetry_equiv_pos_site_id
 _symmetry_equiv_pos_as_xyz
1 'x, y, z'
2 '-x, -y, z'
3 'x, -y, z'
4 '-x, y, z'
5 'x+1/2, y+1/2, z+1/2'
6 '-x+1/2, -y+1/2, z+1/2'
7 'x+1/2, -y+1/2, z+1/2'
8 '-x+1/2, y+1/2, z+1/2'

loop_
 _atom_site_label
 _atom_site_type_symbol
 _atom_site_symmetry_multiplicity
 _atom_site_fract_x
 _atom_site_fract_y
 _atom_site_fract_z
 _atom_site_occupancy
Hf     Hf       2     0.000000    0.000000    0.732549 1
Hf     Hf       2     0.000000    0.000000    0.066147 1
Hf     Hf       2     0.000000    0.500000    0.481474 1
Hf     Hf       2     0.000000    0.500000    0.814580 1
Hf     Hf       2     0.000000    0.500000    0.147980 1
Hf     Hf       2     0.000000    0.000000    0.935382 1
Hf     Hf       2     0.000000    0.000000    0.267600 1
Hf     Hf       2     0.000000    0.000000    0.601185 1
Sc     Sc       2     0.000000    0.500000    0.018034 1
Sc     Sc       2     0.000000    0.000000    0.399233 1
Sc     Sc       2     0.000000    0.500000    0.350684 1
Sc     Sc       2     0.000000    0.500000    0.684512 1
Ga     Ga       2     0.000000    0.000000    0.222001 1
Ga     Ga       2     0.000000    0.500000    0.972667 1
Ga     Ga       2     0.000000    0.500000    0.305348 1
Ga     Ga       2     0.000000    0.500000    0.639025 1
Ga     Ga       2     0.000000    0.000000    0.444484 1
Ga     Ga       2     0.000000    0.000000    0.777616 1
Ga     Ga       2     0.000000    0.000000    0.111224 1
Ga     Ga       2     0.000000    0.500000    0.861112 1
Ga     Ga       2     0.000000    0.500000    0.194619 1
Ga     Ga       2     0.000000    0.500000    0.528216 1
Ga     Ga       2     0.000000    0.000000    0.888749 1
Ga     Ga       2     0.000000    0.000000    0.555567 1
#END

