#############################################################
#             ______       _    _          _                #
#            (_____ \     \ \  / /        | |               #
#             _____) )   _ \ \/ / |_  ____| |               #
#            |  ____/ | | | )  (|  _)/ _  | |               #
#            | |    | |_| |/ /\ \ |_( (_| | |___            #
#            |_|     \__  /_/  \_\___)__|_|_____)           #
#                   (____/                                  #
#---------------------(version    1.1.1)--------------------#
#       A Python package for random crystal generation      #
#       url: https://github.com/qzhu2017/pyxtal             #
#       @Zhu's group at U. North Carolina at Charlotte      #
#############################################################
data_from_pyxtal

_symmetry_space_group_name_H-M 'Ia-3d'
_symmetry_Int_Tables_number                  230
_symmetry_cell_setting                     cubic
_cell_length_a           11.932675
_cell_length_b           11.932675
_cell_length_c           11.932675
_cell_angle_alpha        90.000000
_cell_angle_beta         90.000000
_cell_angle_gamma        90.000000
_cell_volume           1699.078623

loop_
 _symmetry_equiv_pos_site_id
 _symmetry_equiv_pos_as_xyz
1 'x, y, z'
2 '-x+1/2, -y, z+1/2'
3 '-x, y+1/2, -z+1/2'
4 'x+1/2, -y+1/2, -z'
5 'z, x, y'
6 'z+1/2, -x+1/2, -y'
7 '-z+1/2, -x, y+1/2'
8 '-z, x+1/2, -y+1/2'
9 'y, z, x'
10 '-y, z+1/2, -x+1/2'
11 'y+1/2, -z+1/2, -x'
12 '-y+1/2, -z, x+1/2'
13 'y+3/4, x+1/4, -z+1/4'
14 '-y+3/4, -x+3/4, -z+3/4'
15 'y+1/4, -x+1/4, z+3/4'
16 '-y+1/4, x+3/4, z+1/4'
17 'x+3/4, z+1/4, -y+1/4'
18 '-x+1/4, z+3/4, y+1/4'
19 '-x+3/4, -z+3/4, -y+3/4'
20 'x+1/4, -z+1/4, y+3/4'
21 'z+3/4, y+1/4, -x+1/4'
22 'z+1/4, -y+1/4, x+3/4'
23 '-z+1/4, y+3/4, x+1/4'
24 '-z+3/4, -y+3/4, -x+3/4'
25 '-x, -y, -z'
26 'x+1/2, y, -z+1/2'
27 'x, -y+1/2, z+1/2'
28 '-x+1/2, y+1/2, z'
29 '-z, -x, -y'
30 '-z+1/2, x+1/2, y'
31 'z+1/2, x, -y+1/2'
32 'z, -x+1/2, y+1/2'
33 '-y, -z, -x'
34 'y, -z+1/2, x+1/2'
35 '-y+1/2, z+1/2, x'
36 'y+1/2, z, -x+1/2'
37 '-y+1/4, -x+3/4, z+3/4'
38 'y+1/4, x+1/4, z+1/4'
39 '-y+3/4, x+3/4, -z+1/4'
40 'y+3/4, -x+1/4, -z+3/4'
41 '-x+1/4, -z+3/4, y+3/4'
42 'x+3/4, -z+1/4, -y+3/4'
43 'x+1/4, z+1/4, y+1/4'
44 '-x+3/4, z+3/4, -y+1/4'
45 '-z+1/4, -y+3/4, x+3/4'
46 '-z+3/4, y+3/4, -x+1/4'
47 'z+3/4, -y+1/4, -x+3/4'
48 'z+1/4, y+1/4, x+1/4'
49 'x+1/2, y+1/2, z+1/2'
50 '-x+1, -y+1/2, z+1'
51 '-x+1/2, y+1, -z+1'
52 'x+1, -y+1, -z+1/2'
53 'z+1/2, x+1/2, y+1/2'
54 'z+1, -x+1, -y+1/2'
55 '-z+1, -x+1/2, y+1'
56 '-z+1/2, x+1, -y+1'
57 'y+1/2, z+1/2, x+1/2'
58 '-y+1/2, z+1, -x+1'
59 'y+1, -z+1, -x+1/2'
60 '-y+1, -z+1/2, x+1'
61 'y+5/4, x+3/4, -z+3/4'
62 '-y+5/4, -x+5/4, -z+5/4'
63 'y+3/4, -x+3/4, z+5/4'
64 '-y+3/4, x+5/4, z+3/4'
65 'x+5/4, z+3/4, -y+3/4'
66 '-x+3/4, z+5/4, y+3/4'
67 '-x+5/4, -z+5/4, -y+5/4'
68 'x+3/4, -z+3/4, y+5/4'
69 'z+5/4, y+3/4, -x+3/4'
70 'z+3/4, -y+3/4, x+5/4'
71 '-z+3/4, y+5/4, x+3/4'
72 '-z+5/4, -y+5/4, -x+5/4'
73 '-x+1/2, -y+1/2, -z+1/2'
74 'x+1, y+1/2, -z+1'
75 'x+1/2, -y+1, z+1'
76 '-x+1, y+1, z+1/2'
77 '-z+1/2, -x+1/2, -y+1/2'
78 '-z+1, x+1, y+1/2'
79 'z+1, x+1/2, -y+1'
80 'z+1/2, -x+1, y+1'
81 '-y+1/2, -z+1/2, -x+1/2'
82 'y+1/2, -z+1, x+1'
83 '-y+1, z+1, x+1/2'
84 'y+1, z+1/2, -x+1'
85 '-y+3/4, -x+5/4, z+5/4'
86 'y+3/4, x+3/4, z+3/4'
87 '-y+5/4, x+5/4, -z+3/4'
88 'y+5/4, -x+3/4, -z+5/4'
89 '-x+3/4, -z+5/4, y+5/4'
90 'x+5/4, -z+3/4, -y+5/4'
91 'x+3/4, z+3/4, y+3/4'
92 '-x+5/4, z+5/4, -y+3/4'
93 '-z+3/4, -y+5/4, x+5/4'
94 '-z+5/4, y+5/4, -x+3/4'
95 'z+5/4, -y+3/4, -x+5/4'
96 'z+3/4, y+3/4, x+3/4'

loop_
 _atom_site_label
 _atom_site_type_symbol
 _atom_site_symmetry_multiplicity
 _atom_site_fract_x
 _atom_site_fract_y
 _atom_site_fract_z
 _atom_site_occupancy
Ca     Ca      24     0.125000    0.000000    0.250000 1
Al     Al      16     0.000000    0.000000    0.000000 1
Si     Si      24     0.375000    0.000000    0.250000 1
O      O       96     0.151095    0.962037    0.045514 1
#END

