#############################################################
#             ______       _    _          _                #
#            (_____ \     \ \  / /        | |               #
#             _____) )   _ \ \/ / |_  ____| |               #
#            |  ____/ | | | )  (|  _)/ _  | |               #
#            | |    | |_| |/ /\ \ |_( (_| | |___            #
#            |_|     \__  /_/  \_\___)__|_|_____)           #
#                   (____/                                  #
#---------------------(version    1.1.1)--------------------#
#       A Python package for random crystal generation      #
#       url: https://github.com/qzhu2017/pyxtal             #
#       @Zhu's group at U. North Carolina at Charlotte      #
#############################################################
data_from_pyxtal

_symmetry_space_group_name_H-M 'P21/c'
_symmetry_Int_Tables_number                   14
_symmetry_cell_setting                monoclinic
_cell_length_a           14.224691
_cell_length_b            7.296352
_cell_length_c           13.439607
_cell_angle_alpha        90.000000
_cell_angle_beta        113.310367
_cell_angle_gamma        90.000000
_cell_volume           1281.017720

loop_
 _symmetry_equiv_pos_site_id
 _symmetry_equiv_pos_as_xyz
1 'x, y, z'
2 '-x, y+1/2, -z+1/2'
3 '-x, -y, -z'
4 'x, -y+1/2, z+1/2'

loop_
 _atom_site_label
 _atom_site_type_symbol
 _atom_site_symmetry_multiplicity
 _atom_site_fract_x
 _atom_site_fract_y
 _atom_site_fract_z
 _atom_site_occupancy
K      K        4     0.844917    0.125438    0.557464 1
K      K        4     0.885334    0.633868    0.359678 1
K      K        4     0.397361    0.296066    0.039071 1
K      K        4     0.345421    0.568666    0.307267 1
Bi     Bi       4     0.925982    0.353570    0.822632 1
Bi     Bi       4     0.116599    0.386377    0.371659 1
Bi     Bi       4     0.386988    0.060897    0.271849 1
Bi     Bi       4     0.580017    0.291310    0.391448 1
#END

