#############################################################
#             ______       _    _          _                #
#            (_____ \     \ \  / /        | |               #
#             _____) )   _ \ \/ / |_  ____| |               #
#            |  ____/ | | | )  (|  _)/ _  | |               #
#            | |    | |_| |/ /\ \ |_( (_| | |___            #
#            |_|     \__  /_/  \_\___)__|_|_____)           #
#                   (____/                                  #
#---------------------(version    1.1.1)--------------------#
#       A Python package for random crystal generation      #
#       url: https://github.com/qzhu2017/pyxtal             #
#       @Zhu's group at U. North Carolina at Charlotte      #
#############################################################
data_from_pyxtal

_symmetry_space_group_name_H-M 'Cm'
_symmetry_Int_Tables_number                    8
_symmetry_cell_setting                monoclinic
_cell_length_a            5.585948
_cell_length_b            3.225049
_cell_length_c           34.140684
_cell_angle_alpha        90.000000
_cell_angle_beta         90.000337
_cell_angle_gamma        90.000000
_cell_volume            615.043027

loop_
 _symmetry_equiv_pos_site_id
 _symmetry_equiv_pos_as_xyz
1 'x, y, z'
2 'x, -y, z'
3 'x+1/2, y+1/2, z'
4 'x+1/2, -y+1/2, z'

loop_
 _atom_site_label
 _atom_site_type_symbol
 _atom_site_symmetry_multiplicity
 _atom_site_fract_x
 _atom_site_fract_y
 _atom_site_fract_z
 _atom_site_occupancy
Mo     Mo       2     0.666685    0.000000    0.906546 1
W      W        2     0.666683    0.000000    0.527914 1
W      W        2     0.333330    0.000000    0.717520 1
W      W        2     0.333301    0.000000    0.345107 1
Se     Se       2     0.666656    0.000000    0.667102 1
Se     Se       2     0.666672    0.000000    0.767938 1
S      S        2     0.666626    0.000000    0.299323 1
S      S        2     0.333352    0.000000    0.952081 1
S      S        2     0.333351    0.000000    0.573744 1
S      S        2     0.333352    0.000000    0.860953 1
S      S        2     0.333349    0.000000    0.482099 1
S      S        2     0.666643    0.000000    0.390925 1
#END

