#############################################################
#             ______       _    _          _                #
#            (_____ \     \ \  / /        | |               #
#             _____) )   _ \ \/ / |_  ____| |               #
#            |  ____/ | | | )  (|  _)/ _  | |               #
#            | |    | |_| |/ /\ \ |_( (_| | |___            #
#            |_|     \__  /_/  \_\___)__|_|_____)           #
#                   (____/                                  #
#---------------------(version    1.1.1)--------------------#
#       A Python package for random crystal generation      #
#       url: https://github.com/qzhu2017/pyxtal             #
#       @Zhu's group at U. North Carolina at Charlotte      #
#############################################################
data_from_pyxtal

_symmetry_space_group_name_H-M 'Pm'
_symmetry_Int_Tables_number                    6
_symmetry_cell_setting                monoclinic
_cell_length_a            4.139160
_cell_length_b            4.139218
_cell_length_c            4.139305
_cell_angle_alpha        90.000000
_cell_angle_beta         90.000190
_cell_angle_gamma        90.000000
_cell_volume             70.918246

loop_
 _symmetry_equiv_pos_site_id
 _symmetry_equiv_pos_as_xyz
1 'x, y, z'
2 'x, -y, z'

loop_
 _atom_site_label
 _atom_site_type_symbol
 _atom_site_symmetry_multiplicity
 _atom_site_fract_x
 _atom_site_fract_y
 _atom_site_fract_z
 _atom_site_occupancy
Tl     Tl       1     0.990021    0.500000    0.993980 1
Co     Co       1     0.489993    0.000000    0.494006 1
F      F        1     0.989992    0.000000    0.494005 1
F      F        1     0.489999    0.500000    0.494002 1
F      F        1     0.489996    0.000000    0.994009 1
#END

