#############################################################
#             ______       _    _          _                #
#            (_____ \     \ \  / /        | |               #
#             _____) )   _ \ \/ / |_  ____| |               #
#            |  ____/ | | | )  (|  _)/ _  | |               #
#            | |    | |_| |/ /\ \ |_( (_| | |___            #
#            |_|     \__  /_/  \_\___)__|_|_____)           #
#                   (____/                                  #
#---------------------(version    1.1.1)--------------------#
#       A Python package for random crystal generation      #
#       url: https://github.com/qzhu2017/pyxtal             #
#       @Zhu's group at U. North Carolina at Charlotte      #
#############################################################
data_from_pyxtal

_symmetry_space_group_name_H-M 'Cm'
_symmetry_Int_Tables_number                    8
_symmetry_cell_setting                monoclinic
_cell_length_a            5.809700
_cell_length_b            3.354234
_cell_length_c           29.227006
_cell_angle_alpha        90.000000
_cell_angle_beta         90.010508
_cell_angle_gamma        90.000000
_cell_volume            569.549357

loop_
 _symmetry_equiv_pos_site_id
 _symmetry_equiv_pos_as_xyz
1 'x, y, z'
2 'x, -y, z'
3 'x+1/2, y+1/2, z'
4 'x+1/2, -y+1/2, z'

loop_
 _atom_site_label
 _atom_site_type_symbol
 _atom_site_symmetry_multiplicity
 _atom_site_fract_x
 _atom_site_fract_y
 _atom_site_fract_z
 _atom_site_occupancy
Te     Te       2     0.666712    0.000000    0.408805 1
Te     Te       2     0.666593    0.000000    0.278867 1
Mo     Mo       2     0.666481    0.000000    0.114581 1
Mo     Mo       2     0.333320    0.000000    0.343874 1
W      W        2     0.666885    0.000000    0.582526 1
Se     Se       2     0.333504    0.000000    0.525262 1
Se     Se       2     0.333600    0.000000    0.639696 1
S      S        2     0.333097    0.000000    0.062761 1
S      S        2     0.333204    0.000000    0.166468 1
#END

