#############################################################
#             ______       _    _          _                #
#            (_____ \     \ \  / /        | |               #
#             _____) )   _ \ \/ / |_  ____| |               #
#            |  ____/ | | | )  (|  _)/ _  | |               #
#            | |    | |_| |/ /\ \ |_( (_| | |___            #
#            |_|     \__  /_/  \_\___)__|_|_____)           #
#                   (____/                                  #
#---------------------(version    1.1.1)--------------------#
#       A Python package for random crystal generation      #
#       url: https://github.com/qzhu2017/pyxtal             #
#       @Zhu's group at U. North Carolina at Charlotte      #
#############################################################
data_from_pyxtal

_symmetry_space_group_name_H-M 'C2'
_symmetry_Int_Tables_number                    5
_symmetry_cell_setting                monoclinic
_cell_length_a            5.592144
_cell_length_b            8.755606
_cell_length_c            8.787107
_cell_angle_alpha        90.000000
_cell_angle_beta        108.553375
_cell_angle_gamma        90.000000
_cell_volume            407.879123

loop_
 _symmetry_equiv_pos_site_id
 _symmetry_equiv_pos_as_xyz
1 'x, y, z'
2 '-x, y, -z'
3 'x+1/2, y+1/2, z'
4 '-x+1/2, y+1/2, -z'

loop_
 _atom_site_label
 _atom_site_type_symbol
 _atom_site_symmetry_multiplicity
 _atom_site_fract_x
 _atom_site_fract_y
 _atom_site_fract_z
 _atom_site_occupancy
Li     Li       4     0.830291    0.999932    0.660557 1
Li     Li       4     0.669936    0.750048    0.839888 1
Mn     Mn       2     0.000000    0.000001    0.000000 1
Mn     Mn       4     0.663968    0.000011    0.327931 1
Cr     Cr       4     0.665334    0.249997    0.830654 1
Cr     Cr       2     0.000000    0.250000    0.500000 1
O      O        4     0.680300    0.024376    0.831902 1
O      O        2     0.000000    0.781644    0.000000 1
O      O        4     0.672387    0.220546    0.326212 1
O      O        2     0.000000    0.025582    0.500000 1
O      O        4     0.848388    0.975618    0.168090 1
O      O        2     0.000000    0.218356    0.000000 1
O      O        4     0.346165    0.779478    0.673784 1
O      O        2     0.000000    0.474422    0.500000 1
#END

