#############################################################
#             ______       _    _          _                #
#            (_____ \     \ \  / /        | |               #
#             _____) )   _ \ \/ / |_  ____| |               #
#            |  ____/ | | | )  (|  _)/ _  | |               #
#            | |    | |_| |/ /\ \ |_( (_| | |___            #
#            |_|     \__  /_/  \_\___)__|_|_____)           #
#                   (____/                                  #
#---------------------(version    1.1.1)--------------------#
#       A Python package for random crystal generation      #
#       url: https://github.com/qzhu2017/pyxtal             #
#       @Zhu's group at U. North Carolina at Charlotte      #
#############################################################
data_from_pyxtal

_symmetry_space_group_name_H-M 'P2/m'
_symmetry_Int_Tables_number                   10
_symmetry_cell_setting                monoclinic
_cell_length_a            5.343986
_cell_length_b            3.078251
_cell_length_c            7.531201
_cell_angle_alpha        90.000000
_cell_angle_beta         90.116449
_cell_angle_gamma        90.000000
_cell_volume            123.889003

loop_
 _symmetry_equiv_pos_site_id
 _symmetry_equiv_pos_as_xyz
1 'x, y, z'
2 '-x, y, -z'
3 '-x, -y, -z'
4 'x, -y, z'

loop_
 _atom_site_label
 _atom_site_type_symbol
 _atom_site_symmetry_multiplicity
 _atom_site_fract_x
 _atom_site_fract_y
 _atom_site_fract_z
 _atom_site_occupancy
Mn     Mn       2     0.330707    0.000000    0.662283 1
Mn     Mn       1     0.500000    0.500000    0.000000 1
Mn     Mn       1     0.000000    0.000000    0.000000 1
Fe     Fe       2     0.835235    0.500000    0.664951 1
O      O        2     0.667897    0.000000    0.829994 1
O      O        2     0.166981    0.500000    0.832570 1
O      O        1     0.500000    0.500000    0.500000 1
O      O        1     0.000000    0.000000    0.500000 1
#END

