# generated using pymatgen
data_H4C
_symmetry_space_group_name_H-M   Cmcm
_cell_length_a   5.47308667
_cell_length_b   4.29304203
_cell_length_c   5.19969067
_cell_angle_alpha   90.00000000
_cell_angle_beta   90.00000000
_cell_angle_gamma   90.00000000
_symmetry_Int_Tables_number   63
_chemical_formula_structural   H4C
_chemical_formula_sum   'H16 C4'
_cell_volume   122.17292577500473
_cell_formula_units_Z   4
loop_
 _symmetry_equiv_pos_site_id
 _symmetry_equiv_pos_as_xyz
  1  'x, y, z'
  2  '-x, -y, -z'
  3  '-x, -y, z+1/2'
  4  'x, y, -z+1/2'
  5  'x, -y, -z'
  6  '-x+1/2, y+1/2, z'
  7  '-x+1/2, y+1/2, -z+1/2'
  8  'x, -y, z+1/2'
  9  'x+1/2, y+1/2, z'
  10  '-x+1/2, -y+1/2, -z'
  11  '-x+1/2, -y+1/2, z+1/2'
  12  'x+1/2, y+1/2, -z+1/2'
  13  'x+1/2, -y+1/2, -z'
  14  '-x, y, z'
  15  '-x, y, -z+1/2'
  16  'x+1/2, -y+1/2, z+1/2'
loop_
 _atom_site_type_symbol
 _atom_site_label
 _atom_site_symmetry_multiplicity
 _atom_site_fract_x
 _atom_site_fract_y
 _atom_site_fract_z
 _atom_site_occupancy
  H  H1  8  0.000000  0.051090  0.078892  1
  H  H2  8  0.162560  0.344178  0.250000  1
  C  C3  4  0.000000  0.197634  0.250000  1
